CM EXAMPLE 1. CENTER FED LINEARA ANTENNA
CE PAGE 83 OF THE MANUAL
GW 0,7,0.,0.,-.25,0.,0.,.25,0.001
GE
EX 0 0 4 0 1.
XQ 
LD 0 0 4 4 10. 3.00e-9 5.300e-11
PQ
NE 0 1 1 15 .001 0 0 0. 0. .01786
EN
