CM My Model
CE  Is here.
GW 0,1,0.0,-0.0001,0.0,0.0,0.0001,0.0,2e-05
GW 1,1,0.0,0.0001,0.0,0.0002,0.0001,0.0,2e-05
GW 2,1,0.0002,-0.0001,0.0,0.0,-0.0001,0.0,2e-05
GW 3,1,0.0002,0.0001,0.0,0.0002,-0.0001,0.0,2e-05
GW 4,1,0.0002,0.0001,0.0,0.0004,0.0001,0.0,2e-05
GW 5,1,0.0004,-0.0001,0.0,0.0002,-0.0001,0.0,2e-05
GW 6,1,0.0004,0.0001,0.0,0.0004,-0.0001,0.0,2e-05
GW 7,1,0.0004,0.0001,0.0,0.0006000000000000001,0.0001,0.0,2e-05
GW 8,1,0.0006000000000000001,-0.0001,0.0,0.0004,-0.0001,0.0,2e-05
GW 9,1,0.0006000000000000001,0.0001,0.0,0.0006000000000000001,-0.0001,0.0,2e-05
GE
LD 0 3 0 0 50 0 0
LD 0 6 0 0 0 2.67e-08 0
LD 0 9 0 0 0 0 1.068e-11
EX 0 0 1 01 1.0 0.0
FR 0 1 0 0 298.0 1.0
PQ 0
XQ
EN
